ca_results/winter/base_case/inlf/rts_gmlc_export_10_43_winter_v35_Radj_base_inlf.raw
@!IC,SBASE,REV,XFRRAT,NXFRAT,BASFRQ
0,  100.00, 36,     0,     1, 60.00     / PSS(R)E-36.5    THU, APR 09 2026  16:03
EXPORT_1_1
PSS/E 33.3 RAW VIA POWERFLOWS.JL, 2026-04-06T08:47:24.278
GENERAL, THRSHZ=0.0001, PQBRAK=0.7, BLOWUP=5.0, MaxIsolLvls=4, CAMaxReptSln=20, ChkDupCntLbl=0
GAUSS, ITMX=100, ACCP=1.6, ACCQ=1.6, ACCM=1.0, TOL=0.0001
NEWTON, ITMXN=20, ACCN=1.0, TOLN=0.1, VCTOLQ=0.1, VCTOLV=0.00001, DVLIM=0.99, NDVFCT=0.99
ADJUST, ADJTHR=0.005, ACCTAP=1.0, TAPLIM=0.05, SWVBND=100.0, MXTPSS=99, MXSWIM=10
TYSL, ITMXTY=20, ACCTY=1.0, TOLTY=0.00001
RATING, 1, "RATE1 ", "RATING SET 1                    "
RATING, 2, "RATE2 ", "RATING SET 2                    "
RATING, 3, "RATE3 ", "RATING SET 3                    "
RATING, 4, "RATE4 ", "RATING SET 4                    "
RATING, 5, "RATE5 ", "RATING SET 5                    "
RATING, 6, "RATE6 ", "RATING SET 6                    "
RATING, 7, "RATE7 ", "RATING SET 7                    "
RATING, 8, "RATE8 ", "RATING SET 8                    "
RATING, 9, "RATE9 ", "RATING SET 9                    "
RATING,10, "RATE10", "RATING SET 10                   "
RATING,11, "RATE11", "RATING SET 11                   "
RATING,12, "RATE12", "RATING SET 12                   "
SWDRATNAM,  1, "RATE1 ", 0, "MVA", "SWD RATING SET 1                "
SWDRATNAM,  2, "RATE2 ", 0, "MVA", "SWD RATING SET 2                "
SWDRATNAM,  3, "RATE3 ", 0, "MVA", "SWD RATING SET 3                "
SWDRATNAM,  4, "RATE4 ", 0, "MVA", "SWD RATING SET 4                "
SWDRATNAM,  5, "RATE5 ", 0, "MVA", "SWD RATING SET 5                "
SWDRATNAM,  6, "RATE6 ", 0, "MVA", "SWD RATING SET 6                "
SWDRATNAM,  7, "RATE7 ", 0, "MVA", "SWD RATING SET 7                "
SWDRATNAM,  8, "RATE8 ", 0, "MVA", "SWD RATING SET 8                "
SWDRATNAM,  9, "RATE9 ", 0, "MVA", "SWD RATING SET 9                "
SWDRATNAM, 10, "RATE10", 0, "MVA", "SWD RATING SET 10               "
SWDRATNAM, 11, "RATE11", 0, "MVA", "SWD RATING SET 11               "
SWDRATNAM, 12, "RATE12", 0, "MVA", "SWD RATING SET 12               "
0 / END OF SYSTEM-WIDE DATA, BEGIN BUS DATA
@!   I,'NAME        ', BASKV, IDE,AREA,ZONE,OWNER, VM,        VA,    NVHI,   NVLO,   EVHI,   EVLO
   101,'ABEL        ', 138.0000,2,   1,  11,   1,0.96115,  -2.6306,1.05000,0.95000,1.10000,0.90000
   102,'ADAMS       ', 138.0000,2,   1,  12,   1,0.96267,  -2.7201,1.05000,0.95000,1.10000,0.90000
   103,'ADLER       ', 138.0000,1,   1,  11,   1,0.95693,  -0.6769,1.05000,0.95000,1.10000,0.90000
   104,'AGRICOLA    ', 138.0000,1,   1,  11,   1,0.95513,  -3.3960,1.05000,0.95000,1.10000,0.90000
   105,'AIKEN       ', 138.0000,1,   1,  11,   1,0.96832,  -3.7099,1.05000,0.95000,1.10000,0.90000
   106,'ALBER       ', 138.0000,1,   1,  12,   1,0.97964,  -4.8366,1.05000,0.95000,1.10000,0.90000
   107,'ALDER       ', 138.0000,2,   1,  12,   1,0.96352,   6.3236,1.05000,0.95000,1.10000,0.90000
   108,'ALGER       ', 138.0000,1,   1,  12,   1,0.95381,   0.9268,1.05000,0.95000,1.10000,0.90000
   109,'ALI         ', 138.0000,1,   1,  13,   1,0.96291,  -1.8727,1.05000,0.95000,1.10000,0.90000
   110,'ALLEN       ', 138.0000,1,   1,  13,   1,0.98714,  -3.1824,1.05000,0.95000,1.10000,0.90000
   111,'ANNA        ', 230.0000,1,   1,  13,   1,0.95087,  -0.3073,1.05000,0.95000,1.10000,0.90000
   112,'ARCHER      ', 230.0000,1,   1,  13,   1,0.95109,  -0.0098,1.05000,0.95000,1.10000,0.90000
   113,'ARNE        ', 230.0000,3,   1,  14,   1,0.95000,   0.0000,1.05000,0.95000,1.10000,0.90000
   114,'ARNOLD      ', 230.0000,2,   1,  16,   1,0.95000,   1.7098,1.05000,0.95000,1.10000,0.90000
   115,'ARTHUR      ', 230.0000,2,   1,  16,   1,0.96164,   8.6502,1.05000,0.95000,1.10000,0.90000
   116,'ASSER       ', 230.0000,2,   1,  16,   1,0.95627,   7.7586,1.05000,0.95000,1.10000,0.90000
   117,'ASTON       ', 230.0000,1,   1,  17,   1,0.95851,  10.5489,1.05000,0.95000,1.10000,0.90000
   118,'ASTOR       ', 230.0000,2,   1,  17,   1,0.95788,  11.8836,1.05000,0.95000,1.10000,0.90000
   119,'ATTAR       ', 230.0000,1,   1,  15,   1,0.95076,   6.1691,1.05000,0.95000,1.10000,0.90000
   120,'ATTILA      ', 230.0000,1,   1,  15,   1,0.95000,   5.7925,1.05000,0.95000,1.10000,0.90000
   121,'ATTLEE      ', 230.0000,2,   1,  17,   1,0.96342,  12.8944,1.05000,0.95000,1.10000,0.90000
   122,'AUBREY      ', 230.0000,2,   1,  17,   1,0.96858,  11.9178,1.05000,0.95000,1.10000,0.90000
   123,'AUSTEN      ', 230.0000,2,   1,  15,   1,0.95045,   5.9844,1.05000,0.95000,1.10000,0.90000
   124,'AVERY       ', 230.0000,1,   1,  16,   1,0.94907,   5.1389,1.05000,0.95000,1.10000,0.90000
   201,'BACH        ', 138.0000,2,   2,  21,   1,0.95627,  -7.2058,1.05000,0.95000,1.10000,0.90000
   202,'BACON       ', 138.0000,2,   2,  22,   1,0.95727,  -7.2249,1.05000,0.95000,1.10000,0.90000
   203,'BAFFIN      ', 138.0000,1,   2,  21,   1,0.95020,  -2.8313,1.05000,0.95000,1.10000,0.90000
   204,'BAILEY      ', 138.0000,1,   2,  21,   1,0.94897,  -7.2798,1.05000,0.95000,1.10000,0.90000
   205,'BAIN        ', 138.0000,1,   2,  21,   1,0.96305,  -7.8894,1.05000,0.95000,1.10000,0.90000
   206,'BAJER       ', 138.0000,1,   2,  22,   1,0.97370,  -8.8313,1.05000,0.95000,1.10000,0.90000
   207,'BAKER       ', 138.0000,2,   2,  22,   1,0.95000, -12.0021,1.05000,0.95000,1.10000,0.90000
   208,'BALCH       ', 138.0000,1,   2,  22,   1,0.94416, -11.1793,1.05000,0.95000,1.10000,0.90000
   209,'BALZAC      ', 138.0000,1,   2,  23,   1,0.95829,  -5.0170,1.05000,0.95000,1.10000,0.90000
   210,'BANKS       ', 138.0000,1,   2,  23,   1,0.98294,  -6.7846,1.05000,0.95000,1.10000,0.90000
   211,'BARDEEN     ', 230.0000,1,   2,  23,   1,0.94702,  -1.7667,1.05000,0.95000,1.10000,0.90000
   212,'BARKLA      ', 230.0000,1,   2,  23,   1,0.94325,   0.0871,1.05000,0.95000,1.10000,0.90000
   213,'BARLOW      ', 230.0000,2,   2,  24,   1,0.95000,   2.3698,1.05000,0.95000,1.10000,0.90000
   214,'BARRY       ', 230.0000,2,   2,  26,   1,0.95000,  -1.2005,1.05000,0.95000,1.10000,0.90000
   215,'BARTON      ', 230.0000,2,   2,  26,   1,0.96006,   2.3203,1.05000,0.95000,1.10000,0.90000
   216,'BASOV       ', 230.0000,2,   2,  26,   1,0.96120,   3.1273,1.05000,0.95000,1.10000,0.90000
   217,'BATES       ', 230.0000,1,   2,  27,   1,0.97760,   4.0630,1.05000,0.95000,1.10000,0.90000
   218,'BAYLE       ', 230.0000,2,   2,  27,   1,0.98758,   4.1961,1.05000,0.95000,1.10000,0.90000
   219,'BEDE        ', 230.0000,1,   2,  25,   1,0.95228,   4.9021,1.05000,0.95000,1.10000,0.90000
   220,'BEETHOVEN   ', 230.0000,1,   2,  25,   1,0.94994,   7.5755,1.05000,0.95000,1.10000,0.90000
   221,'BEHRING     ', 230.0000,2,   2,  27,   1,0.98044,   4.3951,1.05000,0.95000,1.10000,0.90000
   222,'BELL        ', 230.0000,1,   2,  27,   1,0.98671,   4.2074,1.05000,0.95000,1.10000,0.90000
   223,'BLOCH       ', 230.0000,2,   2,  25,   1,0.95115,   9.4881,1.05000,0.95000,1.10000,0.90000
   224,'BORDET      ', 230.0000,1,   2,  26,   1,0.94943,   0.4026,1.05000,0.95000,1.10000,0.90000
   301,'CABELL      ', 138.0000,2,   3,  31,   1,0.96658,  -3.3899,1.05000,0.95000,1.10000,0.90000
   302,'CABOT       ', 138.0000,2,   3,  32,   1,0.96837,  -3.6652,1.05000,0.95000,1.10000,0.90000
   303,'CAESAR      ', 138.0000,1,   3,  31,   1,0.96540,   6.2859,1.05000,0.95000,1.10000,0.90000
   304,'CAINE       ', 138.0000,1,   3,  31,   1,0.95554,  -3.1785,1.05000,0.95000,1.10000,0.90000
   305,'CALVIN      ', 138.0000,1,   3,  31,   1,0.97068,  -4.2544,1.05000,0.95000,1.10000,0.90000
   306,'CAMUS       ', 138.0000,1,   3,  32,   1,0.97899,  -5.4772,1.05000,0.95000,1.10000,0.90000
   307,'CAREW       ', 138.0000,2,   3,  32,   1,0.95205, -10.5921,1.05000,0.95000,1.10000,0.90000
   308,'CARREL      ', 138.0000,1,   3,  32,   1,0.94268,  -8.9321,1.05000,0.95000,1.10000,0.90000
   309,'CARTER      ', 138.0000,1,   3,  33,   1,0.96750,   0.1664,1.05000,0.95000,1.10000,0.90000
   310,'CARUSO      ', 138.0000,1,   3,  33,   1,0.99223,  -2.8368,1.05000,0.95000,1.10000,0.90000
   311,'CARY        ', 230.0000,1,   3,  33,   1,0.96059,   4.7154,1.05000,0.95000,1.10000,0.90000
   312,'CAXTON      ', 230.0000,1,   3,  33,   1,0.96591,   4.8344,1.05000,0.95000,1.10000,0.90000
   313,'CECIL       ', 230.0000,2,   3,  34,   1,0.99226,   6.7616,1.05000,0.95000,1.10000,0.90000
   314,'CHAIN       ', 230.0000,2,   3,  36,   1,0.95000,   8.9582,1.05000,0.95000,1.10000,0.90000
   315,'CHASE       ', 230.0000,2,   3,  36,   1,0.97171,  19.2342,1.05000,0.95000,1.10000,0.90000
   316,'CHIFA       ', 230.0000,2,   3,  36,   1,0.96127,  19.5105,1.05000,0.95000,1.10000,0.90000
   317,'CHUHSI      ', 230.0000,1,   3,  37,   1,1.00410,  25.8893,1.05000,0.95000,1.10000,0.90000
   318,'CLARK       ', 230.0000,2,   3,  37,   1,1.01154,  23.2510,1.05000,0.95000,1.10000,0.90000
   319,'CLAY        ', 230.0000,1,   3,  35,   1,0.95907,  16.3993,1.05000,0.95000,1.10000,0.90000
   320,'CLIVE       ', 230.0000,1,   3,  35,   1,0.96478,  15.1223,1.05000,0.95000,1.10000,0.90000
   321,'COBB        ', 230.0000,2,   3,  37,   1,1.01571,  22.8715,1.05000,0.95000,1.10000,0.90000
   322,'COLE        ', 230.0000,2,   3,  37,   1,1.03592,  24.8706,1.05000,0.95000,1.10000,0.90000
   323,'COMTE       ', 230.0000,2,   3,  35,   1,0.96974,  14.9731,1.05000,0.95000,1.10000,0.90000
   324,'CURIE       ', 230.0000,1,   3,  36,   1,0.95407,  14.3649,1.05000,0.95000,1.10000,0.90000
   325,'CURTISS     ', 230.0000,1,   3,  35,   1,0.97031,  14.7956,1.05000,0.95000,1.10000,0.90000
0 / END OF BUS DATA, BEGIN LOAD DATA
@!   I,'ID',STAT,AREA,ZONE,      PL,        QL,        IP,        IQ,        YP,        YQ, OWNER,SCALE,INTRPT,  DGENP,     DGENQ,DGENF,'  LOAD TYPE ',               'N A M E'
   101,'1 ',   1,   1,  11,    48.242,     9.827,     0.000,     0.000,     0.000,     0.000,   1,    0,  0,     0.000,     0.000,    0,'            ','                                        '
   102,'1 ',   1,   1,  12,    43.328,     8.934,     0.000,     0.000,     0.000,     0.000,   1,    0,  0,     0.000,     0.000,    0,'            ','                                        '
   103,'1 ',   1,   1,  11,    80.403,    16.527,     0.000,     0.000,     0.000,     0.000,   1,    0,  0,     0.000,     0.000,    0,'            ','                                        '
   104,'1 ',   1,   1,  11,    33.055,     6.700,     0.000,     0.000,     0.000,     0.000,   1,    0,  0,     0.000,     0.000,    0,'            ','                                        '
   105,'1 ',   1,   1,  11,    31.715,     6.254,     0.000,     0.000,     0.000,     0.000,   1,    0,  0,     0.000,     0.000,    0,'            ','                                        '
   106,'1 ',   1,   1,  12,    60.749,    12.507,     0.000,     0.000,     0.000,     0.000,   1,    0,  0,     0.000,     0.000,    0,'            ','                                        '
   107,'1 ',   1,   1,  12,    55.836,    11.167,     0.000,     0.000,     0.000,     0.000,   1,    0,  0,     0.000,     0.000,    0,'            ','                                        '
   108,'1 ',   1,   1,  12,    76.383,    15.634,     0.000,     0.000,     0.000,     0.000,   1,    0,  0,     0.000,     0.000,    0,'            ','                                        '
   109,'1 ',   1,   1,  13,    78.170,    16.081,     0.000,     0.000,     0.000,     0.000,   1,    0,  0,     0.000,     0.000,    0,'            ','                                        '
   110,'1 ',   1,   1,  13,    87.104,    17.867,     0.000,     0.000,     0.000,     0.000,   1,    0,  0,     0.000,     0.000,    0,'            ','                                        '
   113,'1 ',   1,   1,  14,   118.371,    24.121,     0.000,     0.000,     0.000,     0.000,   1,    0,  0,     0.000,     0.000,    0,'            ','                                        '
   114,'1 ',   1,   1,  16,    86.657,    17.421,     0.000,     0.000,     0.000,     0.000,   1,    0,  0,     0.000,     0.000,    0,'            ','                                        '
   115,'1 ',   1,   1,  16,   141.599,    28.588,     0.000,     0.000,     0.000,     0.000,   1,    0,  0,     0.000,     0.000,    0,'            ','                                        '
   116,'1 ',   1,   1,  16,    44.668,     8.934,     0.000,     0.000,     0.000,     0.000,   1,    0,  0,     0.000,     0.000,    0,'            ','                                        '
   118,'1 ',   1,   1,  17,   148.746,    30.375,     0.000,     0.000,     0.000,     0.000,   1,    0,  0,     0.000,     0.000,    0,'            ','                                        '
   119,'1 ',   1,   1,  15,    80.850,    16.527,     0.000,     0.000,     0.000,     0.000,   1,    0,  0,     0.000,     0.000,    0,'            ','                                        '
   120,'1 ',   1,   1,  15,    57.176,    11.614,     0.000,     0.000,     0.000,     0.000,   1,    0,  0,     0.000,     0.000,    0,'            ','                                        '
   201,'1 ',   1,   2,  21,    53.125,    10.822,     0.000,     0.000,     0.000,     0.000,   1,    0,  0,     0.000,     0.000,    0,'            ','                                        '
   202,'1 ',   1,   2,  22,    47.714,     9.838,     0.000,     0.000,     0.000,     0.000,   1,    0,  0,     0.000,     0.000,    0,'            ','                                        '
   203,'1 ',   1,   2,  21,    88.541,    18.200,     0.000,     0.000,     0.000,     0.000,   1,    0,  0,     0.000,     0.000,    0,'            ','                                        '
   204,'1 ',   1,   2,  21,    36.400,     7.378,     0.000,     0.000,     0.000,     0.000,   1,    0,  0,     0.000,     0.000,    0,'            ','                                        '
   205,'1 ',   1,   2,  21,    34.924,     6.887,     0.000,     0.000,     0.000,     0.000,   1,    0,  0,     0.000,     0.000,    0,'            ','                                        '
   206,'1 ',   1,   2,  22,    66.898,    13.773,     0.000,     0.000,     0.000,     0.000,   1,    0,  0,     0.000,     0.000,    0,'            ','                                        '
   207,'1 ',   1,   2,  22,    61.487,    12.297,     0.000,     0.000,     0.000,     0.000,   1,    0,  0,     0.000,     0.000,    0,'            ','                                        '
   208,'1 ',   1,   2,  22,    84.114,    17.216,     0.000,     0.000,     0.000,     0.000,   1,    0,  0,     0.000,     0.000,    0,'            ','                                        '
   209,'1 ',   1,   2,  23,    86.081,    17.708,     0.000,     0.000,     0.000,     0.000,   1,    0,  0,     0.000,     0.000,    0,'            ','                                        '
   210,'1 ',   1,   2,  23,    95.919,    19.676,     0.000,     0.000,     0.000,     0.000,   1,    0,  0,     0.000,     0.000,    0,'            ','                                        '
   213,'1 ',   1,   2,  24,   130.352,    26.562,     0.000,     0.000,     0.000,     0.000,   1,    0,  0,     0.000,     0.000,    0,'            ','                                        '
   214,'1 ',   1,   2,  26,    95.427,    19.184,     0.000,     0.000,     0.000,     0.000,   1,    0,  0,     0.000,     0.000,    0,'            ','                                        '
   215,'1 ',   1,   2,  26,   155.930,    31.481,     0.000,     0.000,     0.000,     0.000,   1,    0,  0,     0.000,     0.000,    0,'            ','                                        '
   216,'1 ',   1,   2,  26,    49.189,     9.838,     0.000,     0.000,     0.000,     0.000,   1,    0,  0,     0.000,     0.000,    0,'            ','                                        '
   218,'1 ',   1,   2,  27,   163.801,    33.449,     0.000,     0.000,     0.000,     0.000,   1,    0,  0,     0.000,     0.000,    0,'            ','                                        '
   219,'1 ',   1,   2,  25,    89.033,    18.200,     0.000,     0.000,     0.000,     0.000,   1,    0,  0,     0.000,     0.000,    0,'            ','                                        '
   220,'1 ',   1,   2,  25,    62.962,    12.789,     0.000,     0.000,     0.000,     0.000,   1,    0,  0,     0.000,     0.000,    0,'            ','                                        '
   301,'1 ',   1,   3,  31,    69.238,    14.104,     0.000,     0.000,     0.000,     0.000,   1,    0,  0,     0.000,     0.000,    0,'            ','                                        '
   302,'1 ',   1,   3,  32,    62.186,    12.822,     0.000,     0.000,     0.000,     0.000,   1,    0,  0,     0.000,     0.000,    0,'            ','                                        '
   303,'1 ',   1,   3,  31,   115.397,    23.720,     0.000,     0.000,     0.000,     0.000,   1,    0,  0,     0.000,     0.000,    0,'            ','                                        '
   304,'1 ',   1,   3,  31,    47.441,     9.616,     0.000,     0.000,     0.000,     0.000,   1,    0,  0,     0.000,     0.000,    0,'            ','                                        '
   305,'1 ',   1,   3,  31,    45.518,     8.975,     0.000,     0.000,     0.000,     0.000,   1,    0,  0,     0.000,     0.000,    0,'            ','                                        '
   306,'1 ',   1,   3,  32,    87.189,    17.951,     0.000,     0.000,     0.000,     0.000,   1,    0,  0,     0.000,     0.000,    0,'            ','                                        '
   307,'1 ',   1,   3,  32,    80.137,    16.027,     0.000,     0.000,     0.000,     0.000,   1,    0,  0,     0.000,     0.000,    0,'            ','                                        '
   308,'1 ',   1,   3,  32,   109.627,    22.438,     0.000,     0.000,     0.000,     0.000,   1,    0,  0,     0.000,     0.000,    0,'            ','                                        '
   309,'1 ',   1,   3,  33,   112.192,    23.079,     0.000,     0.000,     0.000,     0.000,   1,    0,  0,     0.000,     0.000,    0,'            ','                                        '
   310,'1 ',   1,   3,  33,   125.013,    25.644,     0.000,     0.000,     0.000,     0.000,   1,    0,  0,     0.000,     0.000,    0,'            ','                                        '
   313,'1 ',   1,   3,  34,   169.890,    34.619,     0.000,     0.000,     0.000,     0.000,   1,    0,  0,     0.000,     0.000,    0,'            ','                                        '
   314,'1 ',   1,   3,  36,   124.372,    25.003,     0.000,     0.000,     0.000,     0.000,   1,    0,  0,     0.000,     0.000,    0,'            ','                                        '
   315,'1 ',   1,   3,  36,   203.227,    41.030,     0.000,     0.000,     0.000,     0.000,   1,    0,  0,     0.000,     0.000,    0,'            ','                                        '
   316,'1 ',   1,   3,  36,    64.109,    12.822,     0.000,     0.000,     0.000,     0.000,   1,    0,  0,     0.000,     0.000,    0,'            ','                                        '
   318,'1 ',   1,   3,  37,   213.484,    43.594,     0.000,     0.000,     0.000,     0.000,   1,    0,  0,     0.000,     0.000,    0,'            ','                                        '
   319,'1 ',   1,   3,  35,   116.038,    23.720,     0.000,     0.000,     0.000,     0.000,   1,    0,  0,     0.000,     0.000,    0,'            ','                                        '
   320,'1 ',   1,   3,  35,    82.060,    16.668,     0.000,     0.000,     0.000,     0.000,   1,    0,  0,     0.000,     0.000,    0,'            ','                                        '
0 / END OF LOAD DATA, BEGIN FIXED SHUNT DATA
@!   I,'ID',STATUS,  GL,        BL,                'N A M E'
   106,'1 ',1,     0.000,  -100.000,'                                        '
   206,'1 ',1,     0.000,  -100.000,'                                        '
   306,'1 ',1,     0.000,  -100.000,'                                        '
0 / END OF FIXED SHUNT DATA, BEGIN VOLTAGE DROOP CONTROL DATA
@!'NAME',                              STATUS,REGBUS,       QDB,      QMIN,      QMAX, VDBLOW,VDBHIGH,  VLOW,   VHIGH
0 / END OF VOLTAGE DROOP CONTROL DATA, BEGIN GENERATOR DATA
@!   I,'ID',      PG,        QG,        QT,        QB,     VS,    IREG,NREG,     MBASE,     ZR,         ZX,         RT,         XT,     GTAP,STAT, RMPCT,      PT,        PB,BASLOD,O1,    F1,  O2,    F2,  O3,    F3,  O4,    F4,WMOD, WPF          'DROOPNAME'                                      'N A M E'
   101,'1 ',    -0.000,     0.000,     0.000,     0.000,0.96115,   101,   0,    25.900, 0.00000E+0, 1.00000E+0, 0.00000E+0, 0.00000E+0,1.00000,1,  100.0,    51.800,     0.000, 0,   1,1.0000
   101,'2 ',    -0.000,     0.000,     0.000,     0.000,0.96115,   101,   0,    26.700, 0.00000E+0, 1.00000E+0, 0.00000E+0, 0.00000E+0,1.00000,1,  100.0,    53.400,     0.000, 0,   1,1.0000
   101,'3 ',    -0.000,     0.000,     0.000,     0.000,0.96115,   101,   0,    26.200, 0.00000E+0, 1.00000E+0, 0.00000E+0, 0.00000E+0,1.00000,1,  100.0,    52.400,     0.000, 0,   1,1.0000
   101,'4 ',    -0.000,     0.000,     0.000,     0.000,0.96115,   101,   0,    25.800, 0.00000E+0, 1.00000E+0, 0.00000E+0, 0.00000E+0,1.00000,1,  100.0,    51.600,     0.000, 0,   1,1.0000
   101,'5 ',    30.000,   -25.000,    30.000,   -25.000,0.96115,   101,   0,    89.000, 0.00000E+0, 1.00000E+0, 0.00000E+0, 0.00000E+0,1.00000,1,  100.0,    76.000,    30.000, 0,   1,1.0000
   101,'6 ',    30.000,   -25.000,    30.000,   -25.000,0.96115,   101,   0,    89.000, 0.00000E+0, 1.00000E+0, 0.00000E+0, 0.00000E+0,1.00000,1,  100.0,    76.000,    30.000, 0,   1,1.0000
   102,'1 ',    -0.000,     0.000,     0.000,     0.000,0.96267,   102,   0,    25.600, 0.00000E+0, 1.00000E+0, 0.00000E+0, 0.00000E+0,1.00000,1,  100.0,    51.200,     0.000, 0,   1,1.0000
   102,'2 ',    -0.000,     0.000,     0.000,     0.000,0.96267,   102,   0,    25.300, 0.00000E+0, 1.00000E+0, 0.00000E+0, 0.00000E+0,1.00000,1,  100.0,    50.600,     0.000, 0,   1,1.0000
   102,'3 ',    30.000,   -25.000,    30.000,   -25.000,0.96267,   102,   0,    89.000, 0.00000E+0, 1.00000E+0, 0.00000E+0, 0.00000E+0,1.00000,1,  100.0,    76.000,    30.000, 0,   1,1.0000
   102,'4 ',    30.000,   -25.000,    30.000,   -25.000,0.96267,   102,   0,    89.000, 0.00000E+0, 1.00000E+0, 0.00000E+0, 0.00000E+0,1.00000,1,  100.0,    76.000,    30.000, 0,   1,1.0000
   103,'1 ',    -0.000,     0.000,     0.000,     0.000,0.95693,   103,   0,    61.500, 0.00000E+0, 1.00000E+0, 0.00000E+0, 0.00000E+0,1.00000,1,  100.0,   123.000,     0.000, 0,   1,1.0000
   104,'1 ',    -0.000,     0.000,     0.000,     0.000,0.95513,   104,   0,    26.800, 0.00000E+0, 1.00000E+0, 0.00000E+0, 0.00000E+0,1.00000,1,  100.0,    53.600,     0.000, 0,   1,1.0000
   107,'1 ',   282.240,   -25.000,   150.000,   -25.000,0.96352,   107,   0,   414.000, 0.00000E+0, 1.00000E+0, 0.00000E+0, 0.00000E+0,1.00000,1,  100.0,   355.000,   170.000, 0,   1,1.0000
   113,'1 ',    22.000,     2.000,    19.000,   -15.000,0.95000,   113,   0,    64.000, 0.00000E+0, 1.00000E+0, 0.00000E+0, 0.00000E+0,1.00000,1,  100.0,    55.000,    22.000, 0,   1,1.0000
   113,'2 ',    22.000,     2.000,    19.000,   -15.000,0.95000,   113,   0,    64.000, 0.00000E+0, 1.00000E+0, 0.00000E+0, 0.00000E+0,1.00000,1,  100.0,    55.000,    22.000, 0,   1,1.0000
   113,'3 ',    22.000,     2.000,    19.000,   -15.000,0.95000,   113,   0,    64.000, 0.00000E+0, 1.00000E+0, 0.00000E+0, 0.00000E+0,1.00000,1,  100.0,    55.000,    22.000, 0,   1,1.0000
   113,'4 ',    22.000,     2.000,    19.000,   -15.000,0.95000,   113,   0,    64.000, 0.00000E+0, 1.00000E+0, 0.00000E+0, 0.00000E+0,1.00000,1,  100.0,    55.000,    22.000, 0,   1,1.0000
   113,'5 ',    -0.000,     0.000,     0.000,     0.000,0.95000,   113,   0,    93.600, 0.00000E+0, 1.00000E+0, 0.00000E+0, 0.00000E+0,1.00000,1,  100.0,   187.200,     0.000, 0,   1,1.0000
   113,'6 ',     0.000,     0.000,   100.000,     0.000,0.95000,   113,   0,   100.000, 0.00000E+0, 1.00000E+0, 0.00000E+0, 0.00000E+0,1.00000,1,  100.0,   100.000,  -100.000, 0,   1,1.0000
   114,'1 ',     0.000,     0.000,     0.000,     0.000,0.95000,   114,   0,   100.000, 0.00000E+0, 1.00000E+0, 0.00000E+0, 0.00000E+0,1.00000,1,  100.0,     0.000,     0.000, 0,   1,1.0000
   115,'1 ',    62.000,    79.999,    80.000,   -50.000,0.96164,   115,   0,   182.000, 0.00000E+0, 1.00000E+0, 0.00000E+0, 0.00000E+0,1.00000,1,  100.0,   155.000,    62.000, 0,   1,1.0000
   116,'1 ',    62.000,     9.200,    80.000,   -50.000,0.95627,   116,   0,   182.000, 0.00000E+0, 1.00000E+0, 0.00000E+0, 0.00000E+0,1.00000,1,  100.0,   155.000,    62.000, 0,   1,1.0000
   118,'1 ',   170.000,   -24.997,   150.000,   -25.000,0.95788,   118,   0,   414.000, 0.00000E+0, 1.00000E+0, 0.00000E+0, 0.00000E+0,1.00000,1,  100.0,   355.000,   170.000, 0,   1,1.0000
   118,'10',     0.000,     0.000,     0.000,     0.000,0.95788,   118,   0,    11.200, 0.00000E+0, 1.00000E+0, 0.00000E+0, 0.00000E+0,1.00000,1,  100.0,     0.000,     0.000, 0,   1,1.0000
   118,'11',     0.000,     0.000,     0.000,     0.000,0.95788,   118,   0,    10.300, 0.00000E+0, 1.00000E+0, 0.00000E+0, 0.00000E+0,1.00000,1,  100.0,     0.000,     0.000, 0,   1,1.0000
   118,'2 ',     0.000,     0.000,     0.000,     0.000,0.95788,   118,   0,     9.300, 0.00000E+0, 1.00000E+0, 0.00000E+0, 0.00000E+0,1.00000,1,  100.0,     0.000,     0.000, 0,   1,1.0000
   118,'3 ',     0.000,     0.000,     0.000,     0.000,0.95788,   118,   0,     4.500, 0.00000E+0, 1.00000E+0, 0.00000E+0, 0.00000E+0,1.00000,1,  100.0,     0.000,     0.000, 0,   1,1.0000
   118,'4 ',     0.000,     0.000,     0.000,     0.000,0.95788,   118,   0,     9.700, 0.00000E+0, 1.00000E+0, 0.00000E+0, 0.00000E+0,1.00000,1,  100.0,     0.000,     0.000, 0,   1,1.0000
   118,'5 ',     0.000,     0.000,     0.000,     0.000,0.95788,   118,   0,     9.400, 0.00000E+0, 1.00000E+0, 0.00000E+0, 0.00000E+0,1.00000,1,  100.0,     0.000,     0.000, 0,   1,1.0000
   118,'6 ',     0.000,     0.000,     0.000,     0.000,0.95788,   118,   0,     9.100, 0.00000E+0, 1.00000E+0, 0.00000E+0, 0.00000E+0,1.00000,1,  100.0,     0.000,     0.000, 0,   1,1.0000
   118,'7 ',     0.000,     0.000,     0.000,     0.000,0.95788,   118,   0,     9.100, 0.00000E+0, 1.00000E+0, 0.00000E+0, 0.00000E+0,1.00000,1,  100.0,     0.000,     0.000, 0,   1,1.0000
   118,'8 ',     0.000,     0.000,     0.000,     0.000,0.95788,   118,   0,     9.700, 0.00000E+0, 1.00000E+0, 0.00000E+0, 0.00000E+0,1.00000,1,  100.0,     0.000,     0.000, 0,   1,1.0000
   118,'9 ',     0.000,     0.000,     0.000,     0.000,0.95788,   118,   0,    11.800, 0.00000E+0, 1.00000E+0, 0.00000E+0, 0.00000E+0,1.00000,1,  100.0,     0.000,     0.000, 0,   1,1.0000
   119,'1 ',    -0.000,    -0.000,     0.000,     0.000,0.95076,   119,   0,    66.600, 0.00000E+0, 1.00000E+0, 0.00000E+0, 0.00000E+0,1.00000,1,  100.0,   133.200,     0.000, 0,   1,1.0000
   121,'1 ',   396.000,   -32.772,   200.000,   -50.000,0.96342,   121,   0,   471.000, 0.00000E+0, 1.00000E+0, 0.00000E+0, 0.00000E+0,1.00000,1,  100.0,   400.000,   396.000, 0,   1,1.0000
   122,'1 ',     0.000,    -0.000,     0.000,     0.000,0.96858,   122,   0,   713.500, 0.00000E+0, 1.00000E+0, 0.00000E+0, 0.00000E+0,1.00000,1,  100.0,   713.500,     0.000, 0,   1,1.0000
   123,'1 ',    22.000,    -9.287,    19.000,   -15.000,0.95045,   123,   0,    64.000, 0.00000E+0, 1.00000E+0, 0.00000E+0, 0.00000E+0,1.00000,1,  100.0,    55.000,    22.000, 0,   1,1.0000
   123,'2 ',    22.000,    -9.287,    19.000,   -15.000,0.95045,   123,   0,    64.000, 0.00000E+0, 1.00000E+0, 0.00000E+0, 0.00000E+0,1.00000,1,  100.0,    55.000,    22.000, 0,   1,1.0000
   123,'3 ',    22.000,    -9.287,    19.000,   -15.000,0.95045,   123,   0,    64.000, 0.00000E+0, 1.00000E+0, 0.00000E+0, 0.00000E+0,1.00000,1,  100.0,    55.000,    22.000, 0,   1,1.0000
   123,'4 ',    62.000,   -43.234,    80.000,   -50.000,0.95045,   123,   0,   182.000, 0.00000E+0, 1.00000E+0, 0.00000E+0, 0.00000E+0,1.00000,1,  100.0,   155.000,    62.000, 0,   1,1.0000
   123,'5 ',   140.000,   -18.133,   150.000,   -25.000,0.95045,   123,   0,   412.000, 0.00000E+0, 1.00000E+0, 0.00000E+0, 0.00000E+0,1.00000,1,  100.0,   350.000,   140.000, 0,   1,1.0000
   201,'1 ',     4.303,   -10.000,    16.000,   -10.000,0.95627,   201,   0,    53.000, 0.00000E+0, 1.00000E+0, 0.00000E+0, 0.00000E+0,1.00000,1,  100.0,    50.000,     0.000, 0,   1,1.0000
   201,'2 ',    30.000,   -25.000,    30.000,   -25.000,0.95627,   201,   0,    89.000, 0.00000E+0, 1.00000E+0, 0.00000E+0, 0.00000E+0,1.00000,1,  100.0,    76.000,    30.000, 0,   1,1.0000
   202,'1 ',    30.000,   -25.000,    30.000,   -25.000,0.95727,   202,   0,    89.000, 0.00000E+0, 1.00000E+0, 0.00000E+0, 0.00000E+0,1.00000,1,  100.0,    76.000,    30.000, 0,   1,1.0000
   202,'2 ',    30.000,   -25.000,    30.000,   -25.000,0.95727,   202,   0,    89.000, 0.00000E+0, 1.00000E+0, 0.00000E+0, 0.00000E+0,1.00000,1,  100.0,    76.000,    30.000, 0,   1,1.0000
   207,'1 ',    22.000,     7.239,    19.000,   -15.000,0.95000,   207,   0,    64.000, 0.00000E+0, 1.00000E+0, 0.00000E+0, 0.00000E+0,1.00000,1,  100.0,    55.000,    22.000, 0,   1,1.0000
   207,'2 ',    22.000,     7.239,    19.000,   -15.000,0.95000,   207,   0,    64.000, 0.00000E+0, 1.00000E+0, 0.00000E+0, 0.00000E+0,1.00000,1,  100.0,    55.000,    22.000, 0,   1,1.0000
   213,'1 ',   170.000,     9.534,   150.000,   -25.000,0.95000,   213,   0,   414.000, 0.00000E+0, 1.00000E+0, 0.00000E+0, 0.00000E+0,1.00000,1,  100.0,   355.000,   170.000, 0,   1,1.0000
   213,'2 ',    22.000,    -1.054,    19.000,   -15.000,0.95000,   213,   0,    64.000, 0.00000E+0, 1.00000E+0, 0.00000E+0, 0.00000E+0,1.00000,1,  100.0,    55.000,    22.000, 0,   1,1.0000
   213,'3 ',    22.000,    -1.054,    19.000,   -15.000,0.95000,   213,   0,    64.000, 0.00000E+0, 1.00000E+0, 0.00000E+0, 0.00000E+0,1.00000,1,  100.0,    55.000,    22.000, 0,   1,1.0000
   213,'4 ',     0.000,     0.000,     0.000,     0.000,0.95000,   213,   0,    13.200, 0.00000E+0, 1.00000E+0, 0.00000E+0, 0.00000E+0,1.00000,1,  100.0,     0.000,     0.000, 0,   1,1.0000
   214,'1 ',     0.000,     0.000,     0.000,     0.000,0.95000,   214,   0,   100.000, 0.00000E+0, 1.00000E+0, 0.00000E+0, 0.00000E+0,1.00000,1,  100.0,     0.000,     0.000, 0,   1,1.0000
   215,'1 ',    22.000,   -14.996,    19.000,   -15.000,0.96006,   215,   0,    64.000, 0.00000E+0, 1.00000E+0, 0.00000E+0, 0.00000E+0,1.00000,1,  100.0,    55.000,    22.000, 0,   1,1.0000
   215,'2 ',    22.000,   -14.996,    19.000,   -15.000,0.96006,   215,   0,    64.000, 0.00000E+0, 1.00000E+0, 0.00000E+0, 0.00000E+0,1.00000,1,  100.0,    55.000,    22.000, 0,   1,1.0000
   215,'3 ',    -0.000,     0.000,     0.000,     0.000,0.96006,   215,   0,   125.100, 0.00000E+0, 1.00000E+0, 0.00000E+0, 0.00000E+0,1.00000,1,  100.0,   250.200,     0.000, 0,   1,1.0000
   216,'1 ',    62.000,    11.669,    80.000,   -50.000,0.96120,   216,   0,   182.000, 0.00000E+0, 1.00000E+0, 0.00000E+0, 0.00000E+0,1.00000,1,  100.0,   155.000,    62.000, 0,   1,1.0000
   218,'1 ',   170.000,   149.993,   150.000,   -25.000,0.98758,   218,   0,   414.000, 0.00000E+0, 1.00000E+0, 0.00000E+0, 0.00000E+0,1.00000,1,  100.0,   355.000,   170.000, 0,   1,1.0000
   221,'1 ',   170.000,   -21.491,   150.000,   -25.000,0.98044,   221,   0,   414.000, 0.00000E+0, 1.00000E+0, 0.00000E+0, 0.00000E+0,1.00000,1,  100.0,   355.000,   170.000, 0,   1,1.0000
   223,'1 ',    22.000,    -2.961,    19.000,   -15.000,0.95115,   223,   0,    64.000, 0.00000E+0, 1.00000E+0, 0.00000E+0, 0.00000E+0,1.00000,1,  100.0,    55.000,    22.000, 0,   1,1.0000
   223,'2 ',    22.000,    -2.961,    19.000,   -15.000,0.95115,   223,   0,    64.000, 0.00000E+0, 1.00000E+0, 0.00000E+0, 0.00000E+0,1.00000,1,  100.0,    55.000,    22.000, 0,   1,1.0000
   223,'3 ',    22.000,    -2.961,    19.000,   -15.000,0.95115,   223,   0,    64.000, 0.00000E+0, 1.00000E+0, 0.00000E+0, 0.00000E+0,1.00000,1,  100.0,    55.000,    22.000, 0,   1,1.0000
   223,'4 ',    62.000,   -28.602,    80.000,   -50.000,0.95115,   223,   0,   182.000, 0.00000E+0, 1.00000E+0, 0.00000E+0, 0.00000E+0,1.00000,1,  100.0,   155.000,    62.000, 0,   1,1.0000
   223,'5 ',    62.000,   -28.602,    80.000,   -50.000,0.95115,   223,   0,   182.000, 0.00000E+0, 1.00000E+0, 0.00000E+0, 0.00000E+0,1.00000,1,  100.0,   155.000,    62.000, 0,   1,1.0000
   223,'6 ',   140.000,    -2.319,   150.000,   -25.000,0.95115,   223,   0,   412.000, 0.00000E+0, 1.00000E+0, 0.00000E+0, 0.00000E+0,1.00000,1,  100.0,   350.000,   140.000, 0,   1,1.0000
   301,'1 ',    22.000,   -14.999,    19.000,   -15.000,0.96658,   301,   0,    64.000, 0.00000E+0, 1.00000E+0, 0.00000E+0, 0.00000E+0,1.00000,1,  100.0,    55.000,    22.000, 0,   1,1.0000
   301,'2 ',    22.000,   -14.999,    19.000,   -15.000,0.96658,   301,   0,    64.000, 0.00000E+0, 1.00000E+0, 0.00000E+0, 0.00000E+0,1.00000,1,  100.0,    55.000,    22.000, 0,   1,1.0000
   302,'1 ',    22.000,   -14.999,    19.000,   -15.000,0.96837,   302,   0,    64.000, 0.00000E+0, 1.00000E+0, 0.00000E+0, 0.00000E+0,1.00000,1,  100.0,    55.000,    22.000, 0,   1,1.0000
   302,'2 ',    22.000,   -14.999,    19.000,   -15.000,0.96837,   302,   0,    64.000, 0.00000E+0, 1.00000E+0, 0.00000E+0, 0.00000E+0,1.00000,1,  100.0,    55.000,    22.000, 0,   1,1.0000
   303,'1 ',   113.873,    -0.000,     0.000,     0.000,0.96540,   303,   0,   847.000, 0.00000E+0, 1.00000E+0, 0.00000E+0, 0.00000E+0,1.00000,1,  100.0,   847.000,     0.000, 0,   1,1.0000
   307,'1 ',    22.000,    14.232,    19.000,   -15.000,0.95205,   307,   0,    64.000, 0.00000E+0, 1.00000E+0, 0.00000E+0, 0.00000E+0,1.00000,1,  100.0,    55.000,    22.000, 0,   1,1.0000
   307,'2 ',    22.000,    14.232,    19.000,   -15.000,0.95205,   307,   0,    64.000, 0.00000E+0, 1.00000E+0, 0.00000E+0, 0.00000E+0,1.00000,1,  100.0,    55.000,    22.000, 0,   1,1.0000
   308,'1 ',     0.000,     0.000,     0.000,     0.000,0.94268,   308,   0,   100.900, 0.00000E+0, 1.00000E+0, 0.00000E+0, 0.00000E+0,1.00000,1,  100.0,     0.000,     0.000, 0,   1,1.0000
   309,'1 ',     0.000,    -0.000,     0.000,     0.000,0.96750,   309,   0,   148.300, 0.00000E+0, 1.00000E+0, 0.00000E+0, 0.00000E+0,1.00000,1,  100.0,   148.300,     0.000, 0,   1,1.0000
   310,'1 ',    -0.000,    -0.000,     0.000,     0.000,0.99223,   310,   0,    51.700, 0.00000E+0, 1.00000E+0, 0.00000E+0, 0.00000E+0,1.00000,1,  100.0,   103.400,     0.000, 0,   1,1.0000
   310,'2 ',    -0.000,    -0.000,     0.000,     0.000,0.99223,   310,   0,    51.600, 0.00000E+0, 1.00000E+0, 0.00000E+0, 0.00000E+0,1.00000,1,  100.0,   103.200,     0.000, 0,   1,1.0000
   312,'1 ',    -0.000,    -0.000,     0.000,     0.000,0.96591,   312,   0,    94.100, 0.00000E+0, 1.00000E+0, 0.00000E+0, 0.00000E+0,1.00000,1,  100.0,   188.200,     0.000, 0,   1,1.0000
   313,'1 ',   170.000,   149.994,   150.000,   -25.000,0.99226,   313,   0,   414.000, 0.00000E+0, 1.00000E+0, 0.00000E+0, 0.00000E+0,1.00000,1,  100.0,   355.000,   170.000, 0,   1,1.0000
   313,'10',     0.000,     0.000,     0.000,     0.000,0.99226,   313,   0,    65.400, 0.00000E+0, 1.00000E+0, 0.00000E+0, 0.00000E+0,1.00000,1,  100.0,     0.000,     0.000, 0,   1,1.0000
   313,'11',     0.000,     0.000,     0.000,     0.000,0.99226,   313,   0,    67.000, 0.00000E+0, 1.00000E+0, 0.00000E+0, 0.00000E+0,1.00000,1,  100.0,     0.000,     0.000, 0,   1,1.0000
   313,'12',     0.000,     0.000,     0.000,     0.000,0.99226,   313,   0,    64.800, 0.00000E+0, 1.00000E+0, 0.00000E+0, 0.00000E+0,1.00000,1,  100.0,     0.000,     0.000, 0,   1,1.0000
   313,'13',     0.000,     0.000,     0.000,     0.000,0.99226,   313,   0,    63.800, 0.00000E+0, 1.00000E+0, 0.00000E+0, 0.00000E+0,1.00000,1,  100.0,     0.000,     0.000, 0,   1,1.0000
   313,'14',     0.000,     0.000,     0.000,     0.000,0.99226,   313,   0,    64.100, 0.00000E+0, 1.00000E+0, 0.00000E+0, 0.00000E+0,1.00000,1,  100.0,     0.000,     0.000, 0,   1,1.0000
   313,'15',     0.000,     0.000,     0.000,     0.000,0.99226,   313,   0,    66.600, 0.00000E+0, 1.00000E+0, 0.00000E+0, 0.00000E+0,1.00000,1,  100.0,     0.000,     0.000, 0,   1,1.0000
   313,'16',     0.000,     0.000,     0.000,     0.000,0.99226,   313,   0,    62.400, 0.00000E+0, 1.00000E+0, 0.00000E+0, 0.00000E+0,1.00000,1,  100.0,     0.000,     0.000, 0,   1,1.0000
   313,'2 ',    -0.000,    -0.000,     0.000,     0.000,0.99226,   313,   0,    95.100, 0.00000E+0, 1.00000E+0, 0.00000E+0, 0.00000E+0,1.00000,1,  100.0,   190.200,     0.000, 0,   1,1.0000
   313,'3 ',    -0.000,    -0.000,     0.000,     0.000,0.99226,   313,   0,    93.300, 0.00000E+0, 1.00000E+0, 0.00000E+0, 0.00000E+0,1.00000,1,  100.0,   186.600,     0.000, 0,   1,1.0000
   313,'4 ',     0.000,     0.000,     0.000,     0.000,0.99226,   313,   0,   101.700, 0.00000E+0, 1.00000E+0, 0.00000E+0, 0.00000E+0,1.00000,1,  100.0,     0.000,     0.000, 0,   1,1.0000
   313,'5 ',     0.000,     0.000,     0.000,     0.000,0.99226,   313,   0,    66.900, 0.00000E+0, 1.00000E+0, 0.00000E+0, 0.00000E+0,1.00000,1,  100.0,     0.000,     0.000, 0,   1,1.0000
   313,'6 ',     0.000,     0.000,     0.000,     0.000,0.99226,   313,   0,    65.200, 0.00000E+0, 1.00000E+0, 0.00000E+0, 0.00000E+0,1.00000,1,  100.0,     0.000,     0.000, 0,   1,1.0000
   313,'7 ',     0.000,     0.000,     0.000,     0.000,0.99226,   313,   0,    27.800, 0.00000E+0, 1.00000E+0, 0.00000E+0, 0.00000E+0,1.00000,1,  100.0,     0.000,     0.000, 0,   1,1.0000
   313,'8 ',     0.000,     0.000,     0.000,     0.000,0.99226,   313,   0,    27.200, 0.00000E+0, 1.00000E+0, 0.00000E+0, 0.00000E+0,1.00000,1,  100.0,     0.000,     0.000, 0,   1,1.0000
   313,'9 ',     0.000,     0.000,     0.000,     0.000,0.99226,   313,   0,    63.100, 0.00000E+0, 1.00000E+0, 0.00000E+0, 0.00000E+0,1.00000,1,  100.0,     0.000,     0.000, 0,   1,1.0000
   314,'1 ',    -0.000,    -0.000,     0.000,     0.000,0.95000,   314,   0,    51.600, 0.00000E+0, 1.00000E+0, 0.00000E+0, 0.00000E+0,1.00000,1,  100.0,   103.200,     0.000, 0,   1,1.0000
   314,'2 ',    -0.000,     0.000,     0.000,     0.000,0.95000,   314,   0,    51.600, 0.00000E+0, 1.00000E+0, 0.00000E+0, 0.00000E+0,1.00000,1,  100.0,   103.200,     0.000, 0,   1,1.0000
   314,'3 ',    -0.000,    -0.000,     0.000,     0.000,0.95000,   314,   0,    92.700, 0.00000E+0, 1.00000E+0, 0.00000E+0, 0.00000E+0,1.00000,1,  100.0,   185.400,     0.000, 0,   1,1.0000
   314,'4 ',    -0.000,    -0.000,     0.000,     0.000,0.95000,   314,   0,    51.600, 0.00000E+0, 1.00000E+0, 0.00000E+0, 0.00000E+0,1.00000,1,  100.0,   103.200,     0.000, 0,   1,1.0000
   314,'5 ',     0.000,     0.000,     0.000,     0.000,0.95000,   314,   0,   100.000, 0.00000E+0, 1.00000E+0, 0.00000E+0, 0.00000E+0,1.00000,1,  100.0,     0.000,     0.000, 0,   1,1.0000
   315,'1 ',    22.000,   -14.934,    19.000,   -15.000,0.97171,   315,   0,    64.000, 0.00000E+0, 1.00000E+0, 0.00000E+0, 0.00000E+0,1.00000,1,  100.0,    55.000,    22.000, 0,   1,1.0000
   315,'2 ',    22.000,   -14.934,    19.000,   -15.000,0.97171,   315,   0,    64.000, 0.00000E+0, 1.00000E+0, 0.00000E+0, 0.00000E+0,1.00000,1,  100.0,    55.000,    22.000, 0,   1,1.0000
   315,'3 ',    22.000,     0.066,    60.000,     0.000,0.97171,   315,   0,    64.000, 0.00000E+0, 1.00000E+0, 0.00000E+0, 0.00000E+0,1.00000,1,  100.0,    55.000,    22.000, 0,   1,1.0000
   316,'1 ',    62.000,    15.003,    80.000,   -50.000,0.96127,   316,   0,   182.000, 0.00000E+0, 1.00000E+0, 0.00000E+0, 0.00000E+0,1.00000,1,  100.0,   155.000,    62.000, 0,   1,1.0000
   316,'2 ',     0.000,     0.000,   100.000,     0.000,0.96127,   316,   0,   100.000, 0.00000E+0, 1.00000E+0, 0.00000E+0, 0.00000E+0,1.00000,1,  100.0,   100.000,  -100.000, 0,   1,1.0000
   317,'1 ',   762.700,    -0.000,     0.000,     0.000,1.00410,   317,   0,   799.100, 0.00000E+0, 1.00000E+0, 0.00000E+0, 0.00000E+0,1.00000,1,  100.0,   799.100,     0.000, 0,   1,1.0000
   318,'1 ',   170.000,   149.998,   150.000,   -25.000,1.01154,   318,   0,   414.000, 0.00000E+0, 1.00000E+0, 0.00000E+0, 0.00000E+0,1.00000,1,  100.0,   355.000,   170.000, 0,   1,1.0000
   319,'1 ',    -0.000,    -0.000,     0.000,     0.000,0.95907,   319,   0,   188.200, 0.00000E+0, 1.00000E+0, 0.00000E+0, 0.00000E+0,1.00000,1,  100.0,   376.400,     0.000, 0,   1,1.0000
   320,'1 ',    -0.000,     0.000,     0.000,     0.000,0.96478,   320,   0,    51.600, 0.00000E+0, 1.00000E+0, 0.00000E+0, 0.00000E+0,1.00000,1,  100.0,   103.200,     0.000, 0,   1,1.0000
   320,'2 ',     0.000,     0.000,     0.000,     0.000,0.96478,   320,   0,    27.300, 0.00000E+0, 1.00000E+0, 0.00000E+0, 0.00000E+0,1.00000,1,  100.0,     0.000,     0.000, 0,   1,1.0000
   320,'3 ',     0.000,     0.000,     0.000,     0.000,0.96478,   320,   0,    27.000, 0.00000E+0, 1.00000E+0, 0.00000E+0, 0.00000E+0,1.00000,1,  100.0,     0.000,     0.000, 0,   1,1.0000
   320,'4 ',     0.000,     0.000,     0.000,     0.000,0.96478,   320,   0,    28.300, 0.00000E+0, 1.00000E+0, 0.00000E+0, 0.00000E+0,1.00000,1,  100.0,     0.000,     0.000, 0,   1,1.0000
   320,'5 ',     0.000,     0.000,     0.000,     0.000,0.96478,   320,   0,    27.000, 0.00000E+0, 1.00000E+0, 0.00000E+0, 0.00000E+0,1.00000,1,  100.0,     0.000,     0.000, 0,   1,1.0000
   320,'6 ',     0.000,     0.000,     0.000,     0.000,0.96478,   320,   0,    28.200, 0.00000E+0, 1.00000E+0, 0.00000E+0, 0.00000E+0,1.00000,1,  100.0,     0.000,     0.000, 0,   1,1.0000
   320,'7 ',     0.000,     0.000,     0.000,     0.000,0.96478,   320,   0,     9.400, 0.00000E+0, 1.00000E+0, 0.00000E+0, 0.00000E+0,1.00000,1,  100.0,     0.000,     0.000, 0,   1,1.0000
   321,'1 ',   170.000,   149.997,   150.000,   -25.000,1.01571,   321,   0,   414.000, 0.00000E+0, 1.00000E+0, 0.00000E+0, 0.00000E+0,1.00000,1,  100.0,   355.000,   170.000, 0,   1,1.0000
   322,'1 ',    22.000,    18.997,    19.000,   -15.000,1.03592,   322,   0,    64.000, 0.00000E+0, 1.00000E+0, 0.00000E+0, 0.00000E+0,1.00000,1,  100.0,    55.000,    22.000, 0,   1,1.0000
   322,'2 ',    22.000,    18.997,    19.000,   -15.000,1.03592,   322,   0,    64.000, 0.00000E+0, 1.00000E+0, 0.00000E+0, 0.00000E+0,1.00000,1,  100.0,    55.000,    22.000, 0,   1,1.0000
   323,'1 ',   170.000,   -12.332,   150.000,   -25.000,0.96974,   323,   0,   414.000, 0.00000E+0, 1.00000E+0, 0.00000E+0, 0.00000E+0,1.00000,1,  100.0,   355.000,   170.000, 0,   1,1.0000
   323,'2 ',   170.000,   -12.332,   150.000,   -25.000,0.96974,   323,   0,   414.000, 0.00000E+0, 1.00000E+0, 0.00000E+0, 0.00000E+0,1.00000,1,  100.0,   355.000,   170.000, 0,   1,1.0000
   324,'1 ',    -0.000,    -0.000,     0.000,     0.000,0.95407,   324,   0,    49.700, 0.00000E+0, 1.00000E+0, 0.00000E+0, 0.00000E+0,1.00000,1,  100.0,    99.400,     0.000, 0,   1,1.0000
   324,'2 ',    -0.000,    -0.000,     0.000,     0.000,0.95407,   324,   0,    51.600, 0.00000E+0, 1.00000E+0, 0.00000E+0, 0.00000E+0,1.00000,1,  100.0,   103.200,     0.000, 0,   1,1.0000
   324,'3 ',    -0.000,    -0.000,     0.000,     0.000,0.95407,   324,   0,    51.000, 0.00000E+0, 1.00000E+0, 0.00000E+0, 0.00000E+0,1.00000,1,  100.0,   102.000,     0.000, 0,   1,1.0000
0 / END OF GENERATOR DATA, BEGIN SWITCHING DEVICE RATING SET DATA
@!                'N A M E'                 , 'DESCRIPTION',   RATE1,   RATE2,   RATE3,   RATE4,   RATE5,   RATE6,   RATE7,   RATE8,   RATE9,  RATE10,  RATE11,  RATE12
0 / END OF SWITCHING DEVICE RATING SET DATA, BEGIN BRANCH DATA
@!   I,     J,'CKT',      R,           X,       B,                   'N A M E'                 ,  RATE1,  RATE2,  RATE3,  RATE4,  RATE5,  RATE6,  RATE7,  RATE8,  RATE9, RATE10, RATE11, RATE12,   GI,      BI,      GJ,      BJ,STAT,MET, LEN,  O1,  F1,    O2,  F2,    O3,  F3,    O4,  F4
   101,   102,'A1', 2.38468E-03, 1.40000E-02,0.46100,'                                        ', 175.00,   0.00,   0.00,   0.00,   0.00,   0.00,   0.00,   0.00,   0.00,   0.00,   0.00,   0.00, 0.00000, 0.00000, 0.00000, 0.00000, 1, 0, 1,  0.00,   1,1.0000
   101,   103,'A2', 4.35535E-02, 2.11000E-01,0.05700,'                                        ', 175.00,   0.00,   0.00,   0.00,   0.00,   0.00,   0.00,   0.00,   0.00,   0.00,   0.00,   0.00, 0.00000, 0.00000, 0.00000, 0.00000, 1, 0, 1,  0.00,   1,1.0000
   101,   105,'A3', 1.74635E-02, 8.50000E-02,0.02300,'                                        ', 175.00,   0.00,   0.00,   0.00,   0.00,   0.00,   0.00,   0.00,   0.00,   0.00,   0.00,   0.00, 0.00000, 0.00000, 0.00000, 0.00000, 1, 0, 1,  0.00,   1,1.0000
   102,   104,'A4', 2.61266E-02, 1.27000E-01,0.03400,'                                        ', 175.00,   0.00,   0.00,   0.00,   0.00,   0.00,   0.00,   0.00,   0.00,   0.00,   0.00,   0.00, 0.00000, 0.00000, 0.00000, 0.00000, 1, 0, 1,  0.00,   1,1.0000
   102,   106,'A5', 3.96615E-02, 1.92000E-01,0.05200,'                                        ', 175.00,   0.00,   0.00,   0.00,   0.00,   0.00,   0.00,   0.00,   0.00,   0.00,   0.00,   0.00, 0.00000, 0.00000, 0.00000, 0.00000, 1, 0, 1,  0.00,   1,1.0000
   103,   109,'A6', 2.45328E-02, 1.19000E-01,0.03200,'                                        ', 175.00,   0.00,   0.00,   0.00,   0.00,   0.00,   0.00,   0.00,   0.00,   0.00,   0.00,   0.00, 0.00000, 0.00000, 0.00000, 0.00000, 1, 0, 1,  0.00,   1,1.0000
   103,   124,'A7', 1.62091E-03, 8.40000E-02,0.00000,'                                        ', 400.00,   0.00,   0.00,   0.00,   0.00,   0.00,   0.00,   0.00,   0.00,   0.00,   0.00,   0.00, 0.00000, 0.00000, 0.00000, 0.00000, 1, 0, 1,  0.00,   1,1.0000
   104,   109,'A8', 2.13859E-02, 1.04000E-01,0.02800,'                                        ', 175.00,   0.00,   0.00,   0.00,   0.00,   0.00,   0.00,   0.00,   0.00,   0.00,   0.00,   0.00, 0.00000, 0.00000, 0.00000, 0.00000, 1, 0, 1,  0.00,   1,1.0000
   105,   110,'A9', 1.81940E-02, 8.80000E-02,0.02400,'                                        ', 175.00,   0.00,   0.00,   0.00,   0.00,   0.00,   0.00,   0.00,   0.00,   0.00,   0.00,   0.00, 0.00000, 0.00000, 0.00000, 0.00000, 1, 0, 1,  0.00,   1,1.0000
   106,   110,'10', 1.16311E-02, 6.10000E-02,2.45900,'                                        ', 175.00,   0.00,   0.00,   0.00,   0.00,   0.00,   0.00,   0.00,   0.00,   0.00,   0.00,   0.00, 0.00000, 0.00000, 0.00000, 0.00000, 1, 0, 1,  0.00,   1,1.0000
   107,   108,'11', 1.35929E-02, 6.10000E-02,0.01700,'                                        ', 175.00,   0.00,   0.00,   0.00,   0.00,   0.00,   0.00,   0.00,   0.00,   0.00,   0.00,   0.00, 0.00000, 0.00000, 0.00000, 0.00000, 1, 0, 1,  0.00,   1,1.0000
   107,   203,'B1', 3.44180E-02, 1.61000E-01,0.04400,'                                        ', 175.00,   0.00,   0.00,   0.00,   0.00,   0.00,   0.00,   0.00,   0.00,   0.00,   0.00,   0.00, 0.00000, 0.00000, 0.00000, 0.00000, 1, 0, 1,  0.00,   1,1.0000
   108,   109,'1 ', 3.42154E-02, 1.65000E-01,0.04500,'                                        ', 175.00,   0.00,   0.00,   0.00,   0.00,   0.00,   0.00,   0.00,   0.00,   0.00,   0.00,   0.00, 0.00000, 0.00000, 0.00000, 0.00000, 1, 0, 1,  0.00,   1,1.0000
   108,   110,'2 ', 3.43555E-02, 1.65000E-01,0.04500,'                                        ', 175.00,   0.00,   0.00,   0.00,   0.00,   0.00,   0.00,   0.00,   0.00,   0.00,   0.00,   0.00, 0.00000, 0.00000, 0.00000, 0.00000, 1, 0, 1,  0.00,   1,1.0000
   109,   111,'14', 1.58526E-03, 8.40000E-02,0.00000,'                                        ', 400.00,   0.00,   0.00,   0.00,   0.00,   0.00,   0.00,   0.00,   0.00,   0.00,   0.00,   0.00, 0.00000, 0.00000, 0.00000, 0.00000, 1, 0, 1,  0.00,   1,1.0000
   109,   112,'15', 1.59479E-03, 8.40000E-02,0.00000,'                                        ', 400.00,   0.00,   0.00,   0.00,   0.00,   0.00,   0.00,   0.00,   0.00,   0.00,   0.00,   0.00, 0.00000, 0.00000, 0.00000, 0.00000, 1, 0, 1,  0.00,   1,1.0000
   110,   111,'16', 1.60647E-03, 8.40000E-02,0.00000,'                                        ', 400.00,   0.00,   0.00,   0.00,   0.00,   0.00,   0.00,   0.00,   0.00,   0.00,   0.00,   0.00, 0.00000, 0.00000, 0.00000, 0.00000, 1, 0, 1,  0.00,   1,1.0000
   110,   112,'17', 1.61798E-03, 8.40000E-02,0.00000,'                                        ', 400.00,   0.00,   0.00,   0.00,   0.00,   0.00,   0.00,   0.00,   0.00,   0.00,   0.00,   0.00, 0.00000, 0.00000, 0.00000, 0.00000, 1, 0, 1,  0.00,   1,1.0000
   111,   113,'18', 4.76317E-03, 4.80000E-02,0.10000,'                                        ', 500.00,   0.00,   0.00,   0.00,   0.00,   0.00,   0.00,   0.00,   0.00,   0.00,   0.00,   0.00, 0.00000, 0.00000, 0.00000, 0.00000, 1, 0, 1,  0.00,   1,1.0000
   111,   114,'19', 3.95364E-03, 4.20000E-02,0.08800,'                                        ', 500.00,   0.00,   0.00,   0.00,   0.00,   0.00,   0.00,   0.00,   0.00,   0.00,   0.00,   0.00, 0.00000, 0.00000, 0.00000, 0.00000, 1, 0, 1,  0.00,   1,1.0000
   112,   113,'20', 4.75067E-03, 4.80000E-02,0.10000,'                                        ', 500.00,   0.00,   0.00,   0.00,   0.00,   0.00,   0.00,   0.00,   0.00,   0.00,   0.00,   0.00, 0.00000, 0.00000, 0.00000, 0.00000, 1, 0, 1,  0.00,   1,1.0000
   112,   123,'21', 9.48093E-03, 9.70000E-02,0.20300,'                                        ', 500.00,   0.00,   0.00,   0.00,   0.00,   0.00,   0.00,   0.00,   0.00,   0.00,   0.00,   0.00, 0.00000, 0.00000, 0.00000, 0.00000, 1, 0, 1,  0.00,   1,1.0000
   113,   123,'22', 8.70234E-03, 8.70000E-02,0.18200,'                                        ', 500.00,   0.00,   0.00,   0.00,   0.00,   0.00,   0.00,   0.00,   0.00,   0.00,   0.00,   0.00, 0.00000, 0.00000, 0.00000, 0.00000, 1, 0, 1,  0.00,   1,1.0000
   113,   215,'B2', 7.88015E-03, 7.50000E-02,0.15800,'                                        ', 500.00,   0.00,   0.00,   0.00,   0.00,   0.00,   0.00,   0.00,   0.00,   0.00,   0.00,   0.00, 0.00000, 0.00000, 0.00000, 0.00000, 1, 0, 1,  0.00,   1,1.0000
   114,   116,'23', 3.96298E-03, 5.90000E-02,0.08200,'                                        ', 500.00,   0.00,   0.00,   0.00,   0.00,   0.00,   0.00,   0.00,   0.00,   0.00,   0.00,   0.00, 0.00000, 0.00000, 0.00000, 0.00000, 1, 0, 1,  0.00,   1,1.0000
   115,   116,'24', 1.54371E-03, 1.70000E-02,0.03600,'                                        ', 500.00,   0.00,   0.00,   0.00,   0.00,   0.00,   0.00,   0.00,   0.00,   0.00,   0.00,   0.00, 0.00000, 0.00000, 0.00000, 0.00000, 1, 0, 1,  0.00,   1,1.0000
   115,   121,'1 ', 4.74673E-03, 4.90000E-02,0.10300,'                                        ', 500.00,   0.00,   0.00,   0.00,   0.00,   0.00,   0.00,   0.00,   0.00,   0.00,   0.00,   0.00, 0.00000, 0.00000, 0.00000, 0.00000, 1, 0, 1,  0.00,   1,1.0000
   115,   121,'2 ', 4.74673E-03, 4.90000E-02,0.10300,'                                        ', 500.00,   0.00,   0.00,   0.00,   0.00,   0.00,   0.00,   0.00,   0.00,   0.00,   0.00,   0.00, 0.00000, 0.00000, 0.00000, 0.00000, 1, 0, 1,  0.00,   1,1.0000
   115,   124,'26', 5.51005E-03, 5.20000E-02,0.10900,'                                        ', 500.00,   0.00,   0.00,   0.00,   0.00,   0.00,   0.00,   0.00,   0.00,   0.00,   0.00,   0.00, 0.00000, 0.00000, 0.00000, 0.00000, 1, 0, 1,  0.00,   1,1.0000
   116,   117,'27', 2.36690E-03, 2.60000E-02,0.05500,'                                        ', 500.00,   0.00,   0.00,   0.00,   0.00,   0.00,   0.00,   0.00,   0.00,   0.00,   0.00,   0.00, 0.00000, 0.00000, 0.00000, 0.00000, 1, 0, 1,  0.00,   1,1.0000
   116,   119,'28', 2.36668E-03, 2.30000E-02,0.04900,'                                        ', 500.00,   0.00,   0.00,   0.00,   0.00,   0.00,   0.00,   0.00,   0.00,   0.00,   0.00,   0.00, 0.00000, 0.00000, 0.00000, 0.00000, 1, 0, 1,  0.00,   1,1.0000
   117,   118,'29', 1.55966E-03, 1.40000E-02,0.03000,'                                        ', 500.00,   0.00,   0.00,   0.00,   0.00,   0.00,   0.00,   0.00,   0.00,   0.00,   0.00,   0.00, 0.00000, 0.00000, 0.00000, 0.00000, 1, 0, 1,  0.00,   1,1.0000
   117,   122,'30', 1.11644E-02, 1.05000E-01,0.22100,'                                        ', 500.00,   0.00,   0.00,   0.00,   0.00,   0.00,   0.00,   0.00,   0.00,   0.00,   0.00,   0.00, 0.00000, 0.00000, 0.00000, 0.00000, 1, 0, 1,  0.00,   1,1.0000
   118,   121,'1 ', 2.39082E-03, 2.60000E-02,0.05500,'                                        ', 500.00,   0.00,   0.00,   0.00,   0.00,   0.00,   0.00,   0.00,   0.00,   0.00,   0.00,   0.00, 0.00000, 0.00000, 0.00000, 0.00000, 1, 0, 1,  0.00,   1,1.0000
   118,   121,'2 ', 2.39082E-03, 2.60000E-02,0.05500,'                                        ', 500.00,   0.00,   0.00,   0.00,   0.00,   0.00,   0.00,   0.00,   0.00,   0.00,   0.00,   0.00, 0.00000, 0.00000, 0.00000, 0.00000, 1, 0, 1,  0.00,   1,1.0000
   119,   120,'1 ', 3.91839E-03, 4.00000E-02,0.08300,'                                        ', 500.00,   0.00,   0.00,   0.00,   0.00,   0.00,   0.00,   0.00,   0.00,   0.00,   0.00,   0.00, 0.00000, 0.00000, 0.00000, 0.00000, 1, 0, 1,  0.00,   1,1.0000
   119,   120,'2 ', 3.91839E-03, 4.00000E-02,0.08300,'                                        ', 500.00,   0.00,   0.00,   0.00,   0.00,   0.00,   0.00,   0.00,   0.00,   0.00,   0.00,   0.00, 0.00000, 0.00000, 0.00000, 0.00000, 1, 0, 1,  0.00,   1,1.0000
   120,   123,'1 ', 2.34596E-03, 2.20000E-02,0.04600,'                                        ', 500.00,   0.00,   0.00,   0.00,   0.00,   0.00,   0.00,   0.00,   0.00,   0.00,   0.00,   0.00, 0.00000, 0.00000, 0.00000, 0.00000, 1, 0, 1,  0.00,   1,1.0000
   120,   123,'2 ', 2.34596E-03, 2.20000E-02,0.04600,'                                        ', 500.00,   0.00,   0.00,   0.00,   0.00,   0.00,   0.00,   0.00,   0.00,   0.00,   0.00,   0.00, 0.00000, 0.00000, 0.00000, 0.00000, 1, 0, 1,  0.00,   1,1.0000
   121,   122,'34', 7.15424E-03, 6.80000E-02,0.14200,'                                        ', 500.00,   0.00,   0.00,   0.00,   0.00,   0.00,   0.00,   0.00,   0.00,   0.00,   0.00,   0.00, 0.00000, 0.00000, 0.00000, 0.00000, 1, 0, 1,  0.00,   1,1.0000
   121,   325,'1 ', 1.04745E-02, 9.70000E-02,0.20300,'                                        ', 500.00,   0.00,   0.00,   0.00,   0.00,   0.00,   0.00,   0.00,   0.00,   0.00,   0.00,   0.00, 0.00000, 0.00000, 0.00000, 0.00000, 1, 0, 2,  0.00,   1,1.0000
   123,   217,'B3', 7.88158E-03, 7.40000E-02,0.15500,'                                        ', 500.00,   0.00,   0.00,   0.00,   0.00,   0.00,   0.00,   0.00,   0.00,   0.00,   0.00,   0.00, 0.00000, 0.00000, 0.00000, 0.00000, 1, 0, 1,  0.00,   1,1.0000
   201,   202,'B1', 2.33718E-03, 1.40000E-02,0.46100,'                                        ', 175.00,   0.00,   0.00,   0.00,   0.00,   0.00,   0.00,   0.00,   0.00,   0.00,   0.00,   0.00, 0.00000, 0.00000, 0.00000, 0.00000, 1, 0, 1,  0.00,   1,1.0000
   201,   203,'B2', 4.32358E-02, 2.11000E-01,0.05700,'                                        ', 175.00,   0.00,   0.00,   0.00,   0.00,   0.00,   0.00,   0.00,   0.00,   0.00,   0.00,   0.00, 0.00000, 0.00000, 0.00000, 0.00000, 1, 0, 1,  0.00,   1,1.0000
   201,   205,'B3', 1.70651E-02, 8.50000E-02,0.02300,'                                        ', 175.00,   0.00,   0.00,   0.00,   0.00,   0.00,   0.00,   0.00,   0.00,   0.00,   0.00,   0.00, 0.00000, 0.00000, 0.00000, 0.00000, 1, 0, 1,  0.00,   1,1.0000
   202,   204,'B4', 2.50970E-02, 1.27000E-01,0.03400,'                                        ', 175.00,   0.00,   0.00,   0.00,   0.00,   0.00,   0.00,   0.00,   0.00,   0.00,   0.00,   0.00, 0.00000, 0.00000, 0.00000, 0.00000, 1, 0, 1,  0.00,   1,1.0000
   202,   206,'B5', 3.87873E-02, 1.92000E-01,0.05200,'                                        ', 175.00,   0.00,   0.00,   0.00,   0.00,   0.00,   0.00,   0.00,   0.00,   0.00,   0.00,   0.00, 0.00000, 0.00000, 0.00000, 0.00000, 1, 0, 1,  0.00,   1,1.0000
   203,   209,'B6', 2.45571E-02, 1.19000E-01,0.03200,'                                        ', 175.00,   0.00,   0.00,   0.00,   0.00,   0.00,   0.00,   0.00,   0.00,   0.00,   0.00,   0.00, 0.00000, 0.00000, 0.00000, 0.00000, 1, 0, 1,  0.00,   1,1.0000
   203,   224,'B7', 1.60382E-03, 8.40000E-02,0.00000,'                                        ', 400.00,   0.00,   0.00,   0.00,   0.00,   0.00,   0.00,   0.00,   0.00,   0.00,   0.00,   0.00, 0.00000, 0.00000, 0.00000, 0.00000, 1, 0, 1,  0.00,   1,1.0000
   204,   209,'B8', 2.09851E-02, 1.04000E-01,0.02800,'                                        ', 175.00,   0.00,   0.00,   0.00,   0.00,   0.00,   0.00,   0.00,   0.00,   0.00,   0.00,   0.00, 0.00000, 0.00000, 0.00000, 0.00000, 1, 0, 1,  0.00,   1,1.0000
   205,   210,'B9', 1.78279E-02, 8.80000E-02,0.02400,'                                        ', 175.00,   0.00,   0.00,   0.00,   0.00,   0.00,   0.00,   0.00,   0.00,   0.00,   0.00,   0.00, 0.00000, 0.00000, 0.00000, 0.00000, 1, 0, 1,  0.00,   1,1.0000
   206,   210,'10', 1.13537E-02, 6.10000E-02,2.45900,'                                        ', 175.00,   0.00,   0.00,   0.00,   0.00,   0.00,   0.00,   0.00,   0.00,   0.00,   0.00,   0.00, 0.00000, 0.00000, 0.00000, 0.00000, 1, 0, 1,  0.00,   1,1.0000
   207,   208,'11', 1.25077E-02, 6.10000E-02,0.01700,'                                        ', 175.00,   0.00,   0.00,   0.00,   0.00,   0.00,   0.00,   0.00,   0.00,   0.00,   0.00,   0.00, 0.00000, 0.00000, 0.00000, 0.00000, 1, 0, 1,  0.00,   1,1.0000
   208,   209,'1 ', 3.38656E-02, 1.65000E-01,0.04500,'                                        ', 175.00,   0.00,   0.00,   0.00,   0.00,   0.00,   0.00,   0.00,   0.00,   0.00,   0.00,   0.00, 0.00000, 0.00000, 0.00000, 0.00000, 1, 0, 1,  0.00,   1,1.0000
   208,   210,'2 ', 3.37507E-02, 1.65000E-01,0.04500,'                                        ', 175.00,   0.00,   0.00,   0.00,   0.00,   0.00,   0.00,   0.00,   0.00,   0.00,   0.00,   0.00, 0.00000, 0.00000, 0.00000, 0.00000, 1, 0, 1,  0.00,   1,1.0000
   209,   211,'14', 1.56301E-03, 8.40000E-02,0.00000,'                                        ', 400.00,   0.00,   0.00,   0.00,   0.00,   0.00,   0.00,   0.00,   0.00,   0.00,   0.00,   0.00, 0.00000, 0.00000, 0.00000, 0.00000, 1, 0, 1,  0.00,   1,1.0000
   209,   212,'15', 1.58622E-03, 8.40000E-02,0.00000,'                                        ', 400.00,   0.00,   0.00,   0.00,   0.00,   0.00,   0.00,   0.00,   0.00,   0.00,   0.00,   0.00, 0.00000, 0.00000, 0.00000, 0.00000, 1, 0, 1,  0.00,   1,1.0000
   210,   211,'16', 1.62744E-03, 8.40000E-02,0.00000,'                                        ', 400.00,   0.00,   0.00,   0.00,   0.00,   0.00,   0.00,   0.00,   0.00,   0.00,   0.00,   0.00, 0.00000, 0.00000, 0.00000, 0.00000, 1, 0, 1,  0.00,   1,1.0000
   210,   212,'17', 1.61032E-03, 8.40000E-02,0.00000,'                                        ', 400.00,   0.00,   0.00,   0.00,   0.00,   0.00,   0.00,   0.00,   0.00,   0.00,   0.00,   0.00, 0.00000, 0.00000, 0.00000, 0.00000, 1, 0, 1,  0.00,   1,1.0000
   211,   213,'18', 4.65413E-03, 4.80000E-02,0.10000,'                                        ', 500.00,   0.00,   0.00,   0.00,   0.00,   0.00,   0.00,   0.00,   0.00,   0.00,   0.00,   0.00, 0.00000, 0.00000, 0.00000, 0.00000, 1, 0, 1,  0.00,   1,1.0000
   211,   214,'19', 3.87867E-03, 4.20000E-02,0.08800,'                                        ', 500.00,   0.00,   0.00,   0.00,   0.00,   0.00,   0.00,   0.00,   0.00,   0.00,   0.00,   0.00, 0.00000, 0.00000, 0.00000, 0.00000, 1, 0, 1,  0.00,   1,1.0000
   212,   213,'20', 4.61878E-03, 4.80000E-02,0.10000,'                                        ', 500.00,   0.00,   0.00,   0.00,   0.00,   0.00,   0.00,   0.00,   0.00,   0.00,   0.00,   0.00, 0.00000, 0.00000, 0.00000, 0.00000, 1, 0, 1,  0.00,   1,1.0000
   212,   223,'21', 9.38163E-03, 9.70000E-02,0.20300,'                                        ', 500.00,   0.00,   0.00,   0.00,   0.00,   0.00,   0.00,   0.00,   0.00,   0.00,   0.00,   0.00, 0.00000, 0.00000, 0.00000, 0.00000, 1, 0, 1,  0.00,   1,1.0000
...